 # A quick start guide to use DualSPHysics