.. Some tips documentation master file, created by
   sphinx-quickstart on Thu Nov 30 17:27:31 2023.
   You can adapt this file completely to your liking, but it should at least
   contain the root `toctree` directive.

Welcome to Some tips's documentation!
=====================================

.. toctree::
   :maxdepth: 2
   :caption: Contents:

   Word2PDF
   DualSPHysics
   OpenFOAM
   MachineLearning
   Paraview
   Matplotlib
   Dual+Torch
   Printer
   Trivial
   .. PPT2PNG
   .. Reef3d
   .. DMD
   
   

Indices and tables
==================

* :ref:`genindex`
* :ref:`modindex`
* :ref:`search`
